<?xml version="1.0" encoding="UTF-8"?>

<!-- generated on 2023-03-20 10:12:53 by Eclipse SUMO netedit Version 1.15.0
<configuration xmlns:xsi="http://www.w3.org/2001/XMLSchema-instance" xsi:noNamespaceSchemaLocation="http://sumo.dlr.de/xsd/netconvertConfiguration.xsd">

    <input>
        <sumo-net-file value="D:\apps\sumo\simulate\test\test3\50%\test2.net.xml"/>
    </input>

    <output>
        <output-file value="D:\apps\sumo\simulate\test\test3\50%\test2.net.xml"/>
    </output>

    <processing>
        <geometry.min-radius.fix.railways value="false"/>
        <geometry.max-grade.fix value="false"/>
        <offset.disable-normalization value="true"/>
        <lefthand value="0"/>
    </processing>

    <junctions>
        <no-turnarounds value="true"/>
        <junctions.corner-detail value="5"/>
        <junctions.limit-turn-speed value="5.50"/>
        <rectangular-lane-cut value="0"/>
    </junctions>

    <pedestrian>
        <walkingareas value="0"/>
    </pedestrian>

</configuration>
-->

<net version="1.9" junctionCornerDetail="5" limitTurnSpeed="5.50" xmlns:xsi="http://www.w3.org/2001/XMLSchema-instance" xsi:noNamespaceSchemaLocation="http://sumo.dlr.de/xsd/net_file.xsd">

    <location netOffset="0.00,0.00" convBoundary="-200.00,0.00,1200.00,1250.00" origBoundary="-10000000000.00,-10000000000.00,10000000000.00,10000000000.00" projParameter="!"/>

    <edge id=":22_0" function="internal">
        <lane id=":22_0_0" index="0" speed="6.62" length="9.27" width="3.50" shape="41.25,1011.00 40.89,1008.48 39.81,1006.69 38.02,1005.61 35.50,1005.25"/>
    </edge>
    <edge id=":22_1" function="internal">
        <lane id=":22_1_0" index="0" speed="14.00" length="22.00" width="3.50" shape="41.25,1011.00 41.25,989.00"/>
        <lane id=":22_1_1" index="1" speed="14.00" length="22.00" width="3.50" shape="44.75,1011.00 44.75,989.00"/>
        <lane id=":22_1_2" index="2" speed="14.00" length="22.00" width="3.50" shape="48.25,1011.00 48.25,989.00"/>
    </edge>
    <edge id=":22_4" function="internal">
        <lane id=":22_4_0" index="0" speed="10.17" length="4.83" width="3.50" shape="48.25,1011.00 49.11,1006.25"/>
    </edge>
    <edge id=":22_18" function="internal">
        <lane id=":22_18_0" index="0" speed="10.17" length="18.63" width="3.50" shape="49.11,1006.25 49.27,1005.42 52.31,1001.44 57.39,999.05 64.50,998.25"/>
    </edge>
    <edge id=":22_5" function="internal">
        <lane id=":22_5_0" index="0" speed="6.62" length="9.27" width="3.50" shape="64.50,1005.25 61.98,1005.61 60.19,1006.69 59.11,1008.48 58.75,1011.00"/>
    </edge>
    <edge id=":22_6" function="internal">
        <lane id=":22_6_0" index="0" speed="13.00" length="29.00" width="3.50" shape="64.50,1005.25 35.50,1005.25"/>
        <lane id=":22_6_1" index="1" speed="13.00" length="29.00" width="3.50" shape="64.50,1001.75 35.50,1001.75"/>
    </edge>
    <edge id=":22_8" function="internal">
        <lane id=":22_8_0" index="0" speed="10.17" length="7.15" width="3.50" shape="64.50,1001.75 57.39,1000.95"/>
    </edge>
    <edge id=":22_19" function="internal">
        <lane id=":22_19_0" index="0" speed="10.17" length="16.30" width="3.50" shape="57.39,1000.95 52.31,998.56 49.27,994.58 48.25,989.00"/>
    </edge>
    <edge id=":22_9" function="internal">
        <lane id=":22_9_0" index="0" speed="6.62" length="9.27" width="3.50" shape="58.75,989.00 59.11,991.52 60.19,993.31 61.98,994.39 64.50,994.75"/>
    </edge>
    <edge id=":22_10" function="internal">
        <lane id=":22_10_0" index="0" speed="14.00" length="22.00" width="3.50" shape="58.75,989.00 58.75,1011.00"/>
        <lane id=":22_10_1" index="1" speed="14.00" length="22.00" width="3.50" shape="55.25,989.00 55.25,1011.00"/>
        <lane id=":22_10_2" index="2" speed="14.00" length="22.00" width="3.50" shape="51.75,989.00 51.75,1011.00"/>
    </edge>
    <edge id=":22_13" function="internal">
        <lane id=":22_13_0" index="0" speed="10.17" length="4.83" width="3.50" shape="51.75,989.00 50.89,993.75"/>
    </edge>
    <edge id=":22_20" function="internal">
        <lane id=":22_20_0" index="0" speed="10.17" length="18.63" width="3.50" shape="50.89,993.75 50.73,994.58 47.69,998.56 42.61,1000.95 35.50,1001.75"/>
    </edge>
    <edge id=":22_14" function="internal">
        <lane id=":22_14_0" index="0" speed="6.62" length="9.27" width="3.50" shape="35.50,994.75 38.02,994.39 39.81,993.31 40.89,991.52 41.25,989.00"/>
    </edge>
    <edge id=":22_15" function="internal">
        <lane id=":22_15_0" index="0" speed="13.00" length="29.00" width="3.50" shape="35.50,994.75 64.50,994.75"/>
        <lane id=":22_15_1" index="1" speed="13.00" length="29.00" width="3.50" shape="35.50,998.25 64.50,998.25"/>
    </edge>
    <edge id=":22_17" function="internal">
        <lane id=":22_17_0" index="0" speed="10.17" length="7.15" width="3.50" shape="35.50,998.25 42.61,999.05"/>
    </edge>
    <edge id=":22_21" function="internal">
        <lane id=":22_21_0" index="0" speed="10.17" length="16.30" width="3.50" shape="42.61,999.05 47.69,1001.44 50.73,1005.42 51.75,1011.00"/>
    </edge>
    <edge id=":23_0" function="internal">
        <lane id=":23_0_0" index="0" speed="7.50" length="12.23" width="3.50" shape="444.75,1014.50 444.39,1010.45 443.31,1007.56 441.52,1005.83 439.00,1005.25"/>
    </edge>
    <edge id=":23_1" function="internal">
        <lane id=":23_1_0" index="0" speed="12.00" length="29.00" width="3.50" shape="444.75,1014.50 444.75,985.50"/>
        <lane id=":23_1_1" index="1" speed="12.00" length="29.00" width="3.50" shape="448.25,1014.50 448.25,985.50"/>
    </edge>
    <edge id=":23_3" function="internal">
        <lane id=":23_3_0" index="0" speed="10.17" length="23.45" width="3.50" shape="448.25,1014.50 449.05,1007.39 451.44,1002.31 455.42,999.27 461.00,998.25"/>
    </edge>
    <edge id=":23_4" function="internal">
        <lane id=":23_4_0" index="0" speed="6.62" length="9.27" width="3.50" shape="461.00,1008.75 458.48,1009.11 456.69,1010.19 455.61,1011.98 455.25,1014.50"/>
    </edge>
    <edge id=":23_5" function="internal">
        <lane id=":23_5_0" index="0" speed="13.00" length="22.36" width="3.50" shape="461.00,1008.75 454.27,1008.20 449.57,1007.00 445.09,1005.80 439.00,1005.25"/>
        <lane id=":23_5_1" index="1" speed="13.00" length="22.36" width="3.50" shape="461.00,1005.25 454.27,1004.70 449.57,1003.50 445.09,1002.30 439.00,1001.75"/>
    </edge>
    <edge id=":23_7" function="internal">
        <lane id=":23_7_0" index="0" speed="10.17" length="23.45" width="3.50" shape="461.00,1001.75 455.42,1000.73 451.44,997.69 449.05,992.61 448.25,985.50"/>
    </edge>
    <edge id=":23_8" function="internal">
        <lane id=":23_8_0" index="0" speed="6.62" length="9.27" width="3.50" shape="455.25,985.50 455.61,988.02 456.69,989.81 458.48,990.89 461.00,991.25"/>
    </edge>
    <edge id=":23_9" function="internal">
        <lane id=":23_9_0" index="0" speed="12.00" length="29.00" width="3.50" shape="455.25,985.50 455.25,1014.50"/>
        <lane id=":23_9_1" index="1" speed="12.00" length="29.00" width="3.50" shape="451.75,985.50 451.75,1014.50"/>
    </edge>
    <edge id=":23_11" function="internal">
        <lane id=":23_11_0" index="0" speed="10.17" length="23.45" width="3.50" shape="451.75,985.50 450.95,992.61 448.56,997.69 444.58,1000.73 439.00,1001.75"/>
    </edge>
    <edge id=":23_12" function="internal">
        <lane id=":23_12_0" index="0" speed="7.50" length="12.23" width="3.50" shape="439.00,994.75 441.52,994.17 443.31,992.44 444.39,989.55 444.75,985.50"/>
    </edge>
    <edge id=":23_13" function="internal">
        <lane id=":23_13_0" index="0" speed="13.00" length="22.00" width="3.50" shape="439.00,994.75 461.00,994.75"/>
        <lane id=":23_13_1" index="1" speed="13.00" length="22.00" width="3.50" shape="439.00,998.25 461.00,998.25"/>
    </edge>
    <edge id=":23_15" function="internal">
        <lane id=":23_15_0" index="0" speed="10.17" length="23.45" width="3.50" shape="439.00,998.25 444.58,999.27 448.56,1002.31 450.95,1007.39 451.75,1014.50"/>
    </edge>
    <edge id=":24_0" function="internal">
        <lane id=":24_0_0" index="0" speed="12.00" length="22.00" width="3.50" shape="961.00,1008.75 939.00,1008.75"/>
        <lane id=":24_0_1" index="1" speed="12.00" length="22.00" width="3.50" shape="961.00,1005.25 939.00,1005.25"/>
        <lane id=":24_0_2" index="2" speed="12.00" length="22.00" width="3.50" shape="961.00,1001.75 939.00,1001.75"/>
    </edge>
    <edge id=":24_3" function="internal">
        <lane id=":24_3_0" index="0" speed="10.17" length="23.45" width="3.50" shape="961.00,1001.75 955.42,1000.73 951.44,997.69 949.05,992.61 948.25,985.50"/>
    </edge>
    <edge id=":24_4" function="internal">
        <lane id=":24_4_0" index="0" speed="6.62" length="9.27" width="3.50" shape="955.25,985.50 955.61,988.02 956.69,989.81 958.48,990.89 961.00,991.25"/>
        <lane id=":24_4_1" index="1" speed="8.22" length="14.92" width="3.50" shape="951.75,985.50 952.33,989.55 954.06,992.44 956.95,994.17 961.00,994.75"/>
    </edge>
    <edge id=":24_6" function="internal">
        <lane id=":24_6_0" index="0" speed="10.77" length="26.45" width="3.50" shape="951.75,985.50 950.95,994.14 948.56,1000.31 944.58,1004.02 939.00,1005.25"/>
        <lane id=":24_6_1" index="1" speed="10.17" length="23.45" width="3.50" shape="951.75,985.50 950.95,992.61 948.56,997.69 944.58,1000.73 939.00,1001.75"/>
    </edge>
    <edge id=":24_8" function="internal">
        <lane id=":24_8_0" index="0" speed="6.62" length="9.27" width="3.50" shape="939.00,991.25 941.52,990.89 943.31,989.81 944.39,988.02 944.75,985.50"/>
    </edge>
    <edge id=":24_9" function="internal">
        <lane id=":24_9_0" index="0" speed="12.00" length="22.00" width="3.50" shape="939.00,991.25 961.00,991.25"/>
        <lane id=":24_9_1" index="1" speed="12.00" length="22.00" width="3.50" shape="939.00,994.75 961.00,994.75"/>
        <lane id=":24_9_2" index="2" speed="12.00" length="22.00" width="3.50" shape="939.00,998.25 961.00,998.25"/>
    </edge>
    <edge id=":33_0" function="internal">
        <lane id=":33_0_0" index="0" speed="12.00" length="24.15" width="3.65" shape="444.75,513.71 445.29,506.47 446.46,499.90 447.64,494.27 448.18,489.84"/>
    </edge>
    <edge id=":33_1" function="internal">
        <lane id=":33_1_0" index="0" speed="9.19" length="6.25" width="3.50" shape="448.25,513.71 449.13,507.53"/>
    </edge>
    <edge id=":33_7" function="internal">
        <lane id=":33_7_0" index="0" speed="9.19" length="17.36" width="3.50" shape="449.13,507.53 449.21,506.97 452.08,502.88 456.86,501.45 463.56,502.68"/>
    </edge>
    <edge id=":33_2" function="internal">
        <lane id=":33_2_0" index="0" speed="6.04" length="9.40" width="3.50" shape="461.35,509.32 458.68,508.83 456.77,509.40 455.63,511.03 455.25,513.71"/>
        <lane id=":33_2_1" index="1" speed="6.98" length="13.04" width="3.50" shape="461.35,509.32 457.15,508.39 454.15,508.82 452.35,510.59 451.75,513.71"/>
    </edge>
    <edge id=":33_4" function="internal">
        <lane id=":33_4_0" index="0" speed="11.57" length="23.15" width="3.65" shape="462.45,506.00 456.21,503.20 451.74,499.58 449.07,495.12 448.18,489.84"/>
    </edge>
    <edge id=":33_5" function="internal">
        <lane id=":33_5_0" index="0" speed="9.92" length="16.78" width="3.50" shape="451.82,489.84 452.63,492.40 455.04,494.84 459.05,497.16 464.67,499.36"/>
    </edge>
    <edge id=":33_6" function="internal">
        <lane id=":33_6_0" index="0" speed="12.00" length="23.87" width="3.50" shape="451.82,489.84 451.75,513.71"/>
    </edge>
    <edge id=":34_0" function="internal">
        <lane id=":34_0_0" index="0" speed="10.94" length="20.64" width="3.50" shape="944.75,680.37 943.94,675.76 941.52,671.85 937.47,668.64 931.81,666.13"/>
    </edge>
    <edge id=":34_1" function="internal">
        <lane id=":34_1_0" index="0" speed="12.00" length="28.61" width="3.50" shape="944.75,680.37 944.72,651.77"/>
        <lane id=":34_1_1" index="1" speed="12.00" length="28.61" width="3.50" shape="948.25,680.37 948.22,651.76"/>
    </edge>
    <edge id=":34_3" function="internal">
        <lane id=":34_3_0" index="0" speed="9.19" length="7.55" width="3.50" shape="948.25,680.37 949.21,673.63 949.63,673.03"/>
    </edge>
    <edge id=":34_16" function="internal">
        <lane id=":34_16_0" index="0" speed="9.19" length="16.06" width="3.50" shape="949.63,673.03 952.08,669.54 956.86,668.11 963.56,669.34"/>
    </edge>
    <edge id=":34_4" function="internal">
        <lane id=":34_4_0" index="0" speed="6.04" length="9.40" width="3.50" shape="961.35,675.98 958.68,675.49 956.77,676.06 955.63,677.69 955.25,680.37"/>
    </edge>
    <edge id=":34_5" function="internal">
        <lane id=":34_5_0" index="0" speed="12.00" length="31.13" width="3.50" shape="961.35,675.98 931.81,666.13"/>
        <lane id=":34_5_1" index="1" speed="12.00" length="31.13" width="3.50" shape="962.46,672.66 932.92,662.81"/>
    </edge>
    <edge id=":34_7" function="internal">
        <lane id=":34_7_0" index="0" speed="12.00" length="6.22" width="3.50" shape="962.46,672.66 956.88,669.89"/>
    </edge>
    <edge id=":34_17" function="internal">
        <lane id=":34_17_0" index="0" speed="12.00" length="20.98" width="3.50" shape="956.88,669.89 956.24,669.58 951.80,665.07 949.12,659.13 948.22,651.76"/>
    </edge>
    <edge id=":34_8" function="internal">
        <lane id=":34_8_0" index="0" speed="9.82" length="16.40" width="3.50" shape="958.72,651.74 959.10,657.25 960.22,661.46 962.08,664.38 964.67,666.02"/>
    </edge>
    <edge id=":34_9" function="internal">
        <lane id=":34_9_0" index="0" speed="12.00" length="28.89" width="3.50" shape="958.72,651.74 958.19,660.89 957.00,667.71 955.80,673.71 955.25,680.37"/>
        <lane id=":34_9_1" index="1" speed="12.00" length="28.89" width="3.50" shape="955.22,651.75 954.69,660.90 953.50,667.72 952.30,673.71 951.75,680.37"/>
    </edge>
    <edge id=":34_11" function="internal">
        <lane id=":34_11_0" index="0" speed="9.82" length="5.36" width="3.50" shape="951.72,651.75 950.87,657.05"/>
    </edge>
    <edge id=":34_18" function="internal">
        <lane id=":34_18_0" index="0" speed="9.82" length="21.86" width="3.50" shape="950.87,657.05 950.56,658.95 947.04,663.19 941.16,664.47 932.92,662.81"/>
    </edge>
    <edge id=":34_12" function="internal">
        <lane id=":34_12_0" index="0" speed="6.04" length="9.40" width="3.50" shape="935.13,656.17 937.80,656.66 939.71,656.09 940.85,654.46 941.22,651.77"/>
    </edge>
    <edge id=":34_13" function="internal">
        <lane id=":34_13_0" index="0" speed="12.00" length="31.13" width="3.50" shape="935.13,656.17 964.67,666.02"/>
        <lane id=":34_13_1" index="1" speed="12.00" length="31.13" width="3.50" shape="934.03,659.49 963.56,669.34"/>
    </edge>
    <edge id=":34_15" function="internal">
        <lane id=":34_15_0" index="0" speed="12.00" length="8.20" width="3.50" shape="934.03,659.49 941.49,662.88"/>
    </edge>
    <edge id=":34_19" function="internal">
        <lane id=":34_19_0" index="0" speed="12.00" length="21.23" width="3.50" shape="941.49,662.88 941.78,663.01 947.32,667.67 950.64,673.45 951.75,680.37"/>
    </edge>
    <edge id=":42_0" function="internal">
        <lane id=":42_0_0" index="0" speed="6.62" length="9.27" width="3.50" shape="41.25,14.50 40.89,11.98 39.81,10.19 38.02,9.11 35.50,8.75"/>
        <lane id=":42_0_1" index="1" speed="8.22" length="14.92" width="3.50" shape="44.75,14.50 44.17,10.45 42.44,7.56 39.55,5.83 35.50,5.25"/>
    </edge>
    <edge id=":42_2" function="internal">
        <lane id=":42_2_0" index="0" speed="11.27" length="29.08" width="3.50" shape="48.25,14.50 49.27,5.86 52.31,-0.31 57.39,-4.02 64.50,-5.25"/>
        <lane id=":42_2_1" index="1" speed="10.72" length="26.21" width="3.50" shape="48.25,14.50 49.27,7.39 52.31,2.31 57.39,-0.73 64.50,-1.75"/>
    </edge>
    <edge id=":42_4" function="internal">
        <lane id=":42_4_0" index="0" speed="6.62" length="9.27" width="3.50" shape="64.50,8.75 61.98,9.11 60.19,10.19 59.11,11.98 58.75,14.50"/>
        <lane id=":42_4_1" index="1" speed="8.22" length="14.92" width="3.50" shape="64.50,5.25 60.45,5.83 57.56,7.56 55.83,10.45 55.25,14.50"/>
    </edge>
    <edge id=":42_6" function="internal">
        <lane id=":42_6_0" index="0" speed="12.00" length="29.00" width="3.50" shape="64.50,5.25 35.50,5.25"/>
        <lane id=":42_6_1" index="1" speed="12.00" length="29.00" width="3.50" shape="64.50,1.75 35.50,1.75"/>
    </edge>
    <edge id=":42_8" function="internal">
        <lane id=":42_8_0" index="0" speed="12.00" length="29.00" width="3.50" shape="35.50,-8.75 64.50,-8.75"/>
        <lane id=":42_8_1" index="1" speed="12.00" length="29.00" width="3.50" shape="35.50,-5.25 64.50,-5.25"/>
    </edge>
    <edge id=":42_10" function="internal">
        <lane id=":42_10_0" index="0" speed="10.72" length="26.21" width="3.50" shape="35.50,-1.75 42.61,-0.73 47.69,2.31 50.73,7.39 51.75,14.50"/>
    </edge>
    <edge id=":43_0" function="internal">
        <lane id=":43_0_0" index="0" speed="6.68" length="9.44" width="3.50" shape="448.18,14.63 447.81,12.06 446.72,10.22 444.90,9.12 442.35,8.75"/>
    </edge>
    <edge id=":43_1" function="internal">
        <lane id=":43_1_0" index="0" speed="10.26" length="24.49" width="3.50" shape="448.18,14.63 448.80,5.93 450.68,-0.24 453.81,-3.87 458.19,-4.97"/>
        <lane id=":43_1_1" index="1" speed="9.61" length="21.32" width="3.50" shape="448.18,14.63 448.79,7.46 450.65,2.38 453.74,-0.59 458.07,-1.47"/>
    </edge>
    <edge id=":43_3" function="internal">
        <lane id=":43_3_0" index="0" speed="6.56" length="9.34" width="3.65" shape="457.71,9.02 455.13,9.30 453.30,10.32 452.19,12.10 451.82,14.63"/>
    </edge>
    <edge id=":43_4" function="internal">
        <lane id=":43_4_0" index="0" speed="12.00" length="15.48" width="3.50" shape="457.71,9.02 442.35,8.75"/>
        <lane id=":43_4_1" index="1" speed="12.00" length="15.48" width="3.50" shape="457.83,5.52 442.35,5.25"/>
        <lane id=":43_4_2" index="2" speed="12.00" length="15.48" width="3.50" shape="457.95,2.03 442.35,1.75"/>
    </edge>
    <edge id=":43_7" function="internal">
        <lane id=":43_7_0" index="0" speed="12.00" length="15.85" width="3.50" shape="442.35,-8.75 458.31,-8.47"/>
        <lane id=":43_7_1" index="1" speed="12.00" length="15.85" width="3.50" shape="442.35,-5.25 458.19,-4.97"/>
        <lane id=":43_7_2" index="2" speed="12.00" length="15.85" width="3.50" shape="442.35,-1.75 458.07,-1.47"/>
    </edge>
    <edge id=":43_10" function="internal">
        <lane id=":43_10_0" index="0" speed="9.68" length="3.92" width="3.65" shape="442.35,-1.75 446.15,-0.81"/>
    </edge>
    <edge id=":43_11" function="internal">
        <lane id=":43_11_0" index="0" speed="9.68" length="17.23" width="3.65" shape="446.15,-0.81 446.50,-0.73 449.46,2.35 451.23,7.47 451.82,14.63"/>
    </edge>

    <edge id="1222" from="12" to="22" priority="-1">
        <lane id="1222_0" index="0" speed="14.00" length="239.00" width="3.50" shape="41.25,1250.00 41.25,1011.00"/>
        <lane id="1222_1" index="1" speed="14.00" length="239.00" width="3.50" shape="44.75,1250.00 44.75,1011.00"/>
        <lane id="1222_2" index="2" speed="14.00" length="239.00" width="3.50" shape="48.25,1250.00 48.25,1011.00"/>
    </edge>
    <edge id="1323" from="13" to="23" priority="-1">
        <lane id="1323_0" index="0" speed="12.00" length="235.50" width="3.50" shape="444.75,1250.00 444.75,1014.50"/>
        <lane id="1323_1" index="1" speed="12.00" length="235.50" width="3.50" shape="448.25,1250.00 448.25,1014.50"/>
    </edge>
    <edge id="2122" from="21" to="22" priority="-1">
        <lane id="2122_0" index="0" speed="12.00" length="235.50" width="3.50" shape="-200.00,994.75 35.50,994.75"/>
        <lane id="2122_1" index="1" speed="12.00" length="235.50" width="3.50" shape="-200.00,998.25 35.50,998.25"/>
    </edge>
    <edge id="2212" from="22" to="12" priority="-1">
        <lane id="2212_0" index="0" speed="14.00" length="239.00" width="3.50" shape="58.75,1011.00 58.75,1250.00"/>
        <lane id="2212_1" index="1" speed="14.00" length="239.00" width="3.50" shape="55.25,1011.00 55.25,1250.00"/>
        <lane id="2212_2" index="2" speed="14.00" length="239.00" width="3.50" shape="51.75,1011.00 51.75,1250.00"/>
    </edge>
    <edge id="2221" from="22" to="21" priority="-1">
        <lane id="2221_0" index="0" speed="12.00" length="235.50" width="3.50" shape="35.50,1005.25 -200.00,1005.25"/>
        <lane id="2221_1" index="1" speed="12.00" length="235.50" width="3.50" shape="35.50,1001.75 -200.00,1001.75"/>
    </edge>
    <edge id="2223" from="22" to="23" priority="-1">
        <lane id="2223_0" index="0" speed="14.00" length="374.50" width="3.50" shape="64.50,994.75 439.00,994.75"/>
        <lane id="2223_1" index="1" speed="14.00" length="374.50" width="3.50" shape="64.50,998.25 439.00,998.25"/>
    </edge>
    <edge id="2242" from="22" to="42" priority="-1">
        <lane id="2242_0" index="0" speed="14.00" length="974.50" width="3.50" shape="41.25,989.00 41.25,14.50"/>
        <lane id="2242_1" index="1" speed="14.00" length="974.50" width="3.50" shape="44.75,989.00 44.75,14.50"/>
        <lane id="2242_2" index="2" speed="14.00" length="974.50" width="3.50" shape="48.25,989.00 48.25,14.50"/>
    </edge>
    <edge id="2313" from="23" to="13" priority="-1">
        <lane id="2313_0" index="0" speed="12.00" length="235.50" width="3.50" shape="455.25,1014.50 455.25,1250.00"/>
        <lane id="2313_1" index="1" speed="12.00" length="235.50" width="3.50" shape="451.75,1014.50 451.75,1250.00"/>
    </edge>
    <edge id="2322" from="23" to="22" priority="-1">
        <lane id="2322_0" index="0" speed="14.00" length="374.50" width="3.50" shape="439.00,1005.25 64.50,1005.25"/>
        <lane id="2322_1" index="1" speed="14.00" length="374.50" width="3.50" shape="439.00,1001.75 64.50,1001.75"/>
    </edge>
    <edge id="2324" from="23" to="24" priority="-1">
        <lane id="2324_0" index="0" speed="12.00" length="478.00" width="3.50" shape="461.00,991.25 939.00,991.25"/>
        <lane id="2324_1" index="1" speed="12.00" length="478.00" width="3.50" shape="461.00,994.75 939.00,994.75"/>
        <lane id="2324_2" index="2" speed="12.00" length="478.00" width="3.50" shape="461.00,998.25 939.00,998.25"/>
    </edge>
    <edge id="2333" from="23" to="33" priority="-1">
        <lane id="2333_0" index="0" speed="12.00" length="471.79" width="3.50" shape="444.75,985.50 444.75,513.71"/>
        <lane id="2333_1" index="1" speed="12.00" length="471.79" width="3.50" shape="448.25,985.50 448.25,513.71"/>
    </edge>
    <edge id="2423" from="24" to="23" priority="-1">
        <lane id="2423_0" index="0" speed="12.00" length="478.00" width="3.50" shape="939.00,1008.75 461.00,1008.75"/>
        <lane id="2423_1" index="1" speed="12.00" length="478.00" width="3.50" shape="939.00,1005.25 461.00,1005.25"/>
        <lane id="2423_2" index="2" speed="12.00" length="478.00" width="3.50" shape="939.00,1001.75 461.00,1001.75"/>
    </edge>
    <edge id="2425" from="24" to="25" priority="-1">
        <lane id="2425_0" index="0" speed="12.00" length="239.00" width="3.50" shape="961.00,991.25 1200.00,991.25"/>
        <lane id="2425_1" index="1" speed="12.00" length="239.00" width="3.50" shape="961.00,994.75 1200.00,994.75"/>
        <lane id="2425_2" index="2" speed="12.00" length="239.00" width="3.50" shape="961.00,998.25 1200.00,998.25"/>
    </edge>
    <edge id="2434" from="24" to="34" priority="-1">
        <lane id="2434_0" index="0" speed="12.00" length="305.13" width="3.50" shape="944.75,985.50 944.75,680.37"/>
        <lane id="2434_1" index="1" speed="12.00" length="305.13" width="3.50" shape="948.25,985.50 948.25,680.37"/>
    </edge>
    <edge id="2524" from="25" to="24" priority="-1">
        <lane id="2524_0" index="0" speed="12.00" length="239.00" width="3.50" shape="1200.00,1008.75 961.00,1008.75"/>
        <lane id="2524_1" index="1" speed="12.00" length="239.00" width="3.50" shape="1200.00,1005.25 961.00,1005.25"/>
        <lane id="2524_2" index="2" speed="12.00" length="239.00" width="3.50" shape="1200.00,1001.75 961.00,1001.75"/>
    </edge>
    <edge id="3323" from="33" to="23" priority="-1">
        <lane id="3323_0" index="0" speed="12.00" length="471.79" width="3.50" shape="455.25,513.71 455.25,985.50"/>
        <lane id="3323_1" index="1" speed="12.00" length="471.79" width="3.50" shape="451.75,513.71 451.75,985.50"/>
    </edge>
    <edge id="3334" from="33" to="34" priority="-1">
        <lane id="3334_0" index="0" speed="12.00" length="495.91" width="3.50" shape="464.67,499.36 935.13,656.17"/>
        <lane id="3334_1" index="1" speed="12.00" length="495.91" width="3.50" shape="463.56,502.68 934.03,659.49"/>
    </edge>
    <edge id="3343" from="33" to="43" priority="-1">
        <lane id="3343_0" index="0" speed="12.00" length="475.21" width="3.65" shape="448.18,489.84 448.18,14.63"/>
    </edge>
    <edge id="3424" from="34" to="24" priority="-1">
        <lane id="3424_0" index="0" speed="12.00" length="305.13" width="3.50" shape="955.25,680.37 955.25,985.50"/>
        <lane id="3424_1" index="1" speed="12.00" length="305.13" width="3.50" shape="951.75,680.37 951.75,985.50"/>
    </edge>
    <edge id="3433" from="34" to="33" priority="-1">
        <lane id="3433_0" index="0" speed="12.00" length="495.91" width="3.50" shape="931.81,666.13 461.35,509.32"/>
        <lane id="3433_1" index="1" speed="12.00" length="495.91" width="3.50" shape="932.92,662.81 462.45,506.00"/>
    </edge>
    <edge id="3435" from="34" to="35" priority="-1">
        <lane id="3435_0" index="0" speed="12.00" length="249.81" width="3.50" shape="964.67,666.02 1201.66,745.02"/>
        <lane id="3435_1" index="1" speed="12.00" length="249.81" width="3.50" shape="963.56,669.34 1200.55,748.34"/>
    </edge>
    <edge id="3443" from="34" to="43" priority="-1" shape="950.00,666.66 949.66,465.09 948.94,441.91 947.74,420.42 946.02,402.22 943.26,381.51 939.40,363.28 934.70,342.25 929.14,321.58 922.33,302.82 915.88,285.03 908.61,268.01 897.45,246.64 884.23,222.75 868.99,197.18 849.66,171.87 829.31,147.27 818.56,136.35 807.85,126.79 796.91,116.85 786.63,109.29 773.85,99.98 758.70,88.93 741.88,78.62 723.11,67.67 701.75,56.72 678.31,46.52 659.12,38.71 639.42,30.87 617.53,23.47 596.58,17.52 574.75,12.06 554.18,7.56 532.83,4.43 508.86,2.04 450.00,0.00">
        <lane id="3443_0" index="0" speed="12.00" length="936.15" width="3.50" shape="941.22,651.77 940.91,465.23 940.20,442.29 939.01,421.08 937.32,403.21 934.63,383.00 930.85,365.14 926.20,344.34 920.79,324.21 914.10,305.80 907.74,288.24 900.70,271.76 889.74,250.78 876.64,227.11 861.73,202.09 842.81,177.32 822.81,153.14 812.52,142.69 801.99,133.29 791.36,123.63 781.46,116.35 768.70,107.05 753.83,96.21 737.39,86.13 718.91,75.35 698.00,64.63 674.91,54.59 655.85,46.83 636.40,39.09 614.93,31.83 594.32,25.97 572.75,20.58 552.61,16.17 531.76,13.12 508.27,10.77 457.71,9.02"/>
        <lane id="3443_1" index="1" speed="12.00" length="936.15" width="3.50" shape="944.72,651.77 944.41,465.18 943.69,442.14 942.50,420.81 940.80,402.81 938.08,382.40 934.27,364.40 929.60,343.50 924.13,323.16 917.39,304.61 910.99,286.96 903.86,270.26 892.83,249.13 879.68,225.37 864.63,200.13 845.55,175.14 825.41,150.79 814.94,140.15 804.34,130.69 793.58,120.92 783.53,113.53 770.76,104.22 755.78,93.30 739.19,83.13 720.59,72.28 699.50,61.47 676.27,51.36 657.16,43.58 637.61,35.80 615.97,28.48 595.23,22.59 573.55,17.17 553.24,12.73 532.19,9.64 508.51,7.28 457.83,5.52"/>
        <lane id="3443_2" index="2" speed="12.00" length="936.15" width="3.50" shape="948.22,651.76 947.91,465.12 947.19,441.99 945.99,420.55 944.28,402.42 941.53,381.81 937.69,363.65 933.00,342.67 927.47,322.11 920.68,303.42 914.25,285.67 907.03,268.76 895.91,247.47 882.71,223.62 867.54,198.16 848.29,172.96 828.01,148.44 817.35,137.62 806.68,128.09 795.80,118.21 785.60,110.70 772.82,101.39 757.73,90.39 740.98,80.12 722.27,69.21 701.00,58.30 677.63,48.13 658.47,40.33 638.82,32.51 617.01,25.14 596.13,19.21 574.35,13.76 553.87,9.28 532.62,6.17 508.74,3.79 457.95,2.03"/>
    </edge>
    <edge id="3534" from="35" to="34" priority="-1">
        <lane id="3534_0" index="0" speed="12.00" length="249.81" width="3.50" shape="1198.34,754.98 961.35,675.98"/>
        <lane id="3534_1" index="1" speed="12.00" length="249.81" width="3.50" shape="1199.45,751.66 962.46,672.66"/>
    </edge>
    <edge id="4142" from="41" to="42" priority="-1">
        <lane id="4142_0" index="0" speed="12.00" length="235.50" width="3.50" shape="-200.00,-8.75 35.50,-8.75"/>
        <lane id="4142_1" index="1" speed="12.00" length="235.50" width="3.50" shape="-200.00,-5.25 35.50,-5.25"/>
        <lane id="4142_2" index="2" speed="12.00" length="235.50" width="3.50" shape="-200.00,-1.75 35.50,-1.75"/>
    </edge>
    <edge id="4222" from="42" to="22" priority="-1">
        <lane id="4222_0" index="0" speed="14.00" length="974.50" width="3.50" shape="58.75,14.50 58.75,989.00"/>
        <lane id="4222_1" index="1" speed="14.00" length="974.50" width="3.50" shape="55.25,14.50 55.25,989.00"/>
        <lane id="4222_2" index="2" speed="14.00" length="974.50" width="3.50" shape="51.75,14.50 51.75,989.00"/>
    </edge>
    <edge id="4241" from="42" to="41" priority="-1">
        <lane id="4241_0" index="0" speed="12.00" length="235.50" width="3.50" shape="35.50,8.75 -200.00,8.75"/>